data/pglib_opf_case5_pjm.json
{"areas":{"1":{"source_id":["areas",1],"col_1":1,"col_2":4,"index":1}},"arcs_to":[[5,4,3],[4,3,2],[6,5,4],[2,4,1],[3,5,1],[1,2,1]],"arcs_dc":[],"switch":{},"bus_gens":{"5":[5],"4":[4],"2":[],"3":[3],"1":[2,1]},"bus_arcs":{"5":[[6,5,4],[3,5,1]],"4":[[6,4,5],[5,4,3],[2,4,1]],"2":[[4,2,3],[1,2,1]],"3":[[5,3,4],[4,3,2]],"1":[[2,1,4],[3,1,5],[1,1,2]]},"bus":{"5":{"zone":1,"bus_i":5,"bus_type":2,"vmax":1.1,"source_id":["bus",5],"area":1,"vmin":0.9,"index":5,"va":0.0,"vm":1.0,"base_kv":230.0},"4":{"zone":1,"bus_i":4,"bus_type":3,"vmax":1.1,"source_id":["bus",4],"area":1,"vmin":0.9,"index":4,"va":0.0,"vm":1.0,"base_kv":230.0},"2":{"zone":1,"bus_i":2,"bus_type":1,"vmax":1.1,"source_id":["bus",2],"area":1,"vmin":0.9,"index":2,"va":0.0,"vm":1.0,"base_kv":230.0},"3":{"zone":1,"bus_i":3,"bus_type":2,"vmax":1.1,"source_id":["bus",3],"area":1,"vmin":0.9,"index":3,"va":0.0,"vm":1.0,"base_kv":230.0},"1":{"zone":1,"bus_i":1,"bus_type":2,"vmax":1.1,"source_id":["bus",1],"area":1,"vmin":0.9,"index":1,"va":0.0,"vm":1.0,"base_kv":230.0}},"dcline":{},"buspairs":{"(4, 5)":{"vm_to_min":0.9,"vm_fr_min":0.9,"angmin":-0.5235987755982988,"branch":6,"angmax":0.5235987755982988,"rate_a":2.4,"tap":1.0,"vm_to_max":1.1,"vm_fr_max":1.1},"(1, 2)":{"vm_to_min":0.9,"vm_fr_min":0.9,"angmin":-0.5235987755982988,"branch":1,"angmax":0.5235987755982988,"rate_a":4.0,"tap":1.0,"vm_to_max":1.1,"vm_fr_max":1.1},"(3, 4)":{"vm_to_min":0.9,"vm_fr_min":0.9,"angmin":-0.5235987755982988,"branch":5,"angmax":0.5235987755982988,"rate_a":4.26,"tap":1.0,"vm_to_max":1.1,"vm_fr_max":1.1},"(1, 4)":{"vm_to_min":0.9,"vm_fr_min":0.9,"angmin":-0.5235987755982988,"branch":2,"angmax":0.5235987755982988,"rate_a":4.26,"tap":1.0,"vm_to_max":1.1,"vm_fr_max":1.1},"(2, 3)":{"vm_to_min":0.9,"vm_fr_min":0.9,"angmin":-0.5235987755982988,"branch":4,"angmax":0.5235987755982988,"rate_a":4.26,"tap":1.0,"vm_to_max":1.1,"vm_fr_max":1.1},"(1, 5)":{"vm_to_min":0.9,"vm_fr_min":0.9,"angmin":-0.5235987755982988,"branch":3,"angmax":0.5235987755982988,"rate_a":4.26,"tap":1.0,"vm_to_max":1.1,"vm_fr_max":1.1}},"arcs_to_dc":[],"arcs_to_sw":[],"storage":{},"bus_loads":{"5":[],"4":[3],"2":[1],"3":[2],"1":[]},"branch":{"5":{"br_r":0.00297,"rate_a":4.26,"b":-33.33666700003334,"shift":0.0,"rate_b":4.26,"br_x":0.0297,"rate_c":4.26,"ti":0.0,"g_to":0.0,"g_fr":0.0,"source_id":["branch",5],"b_fr":0.00337,"f_bus":3,"g":3.3336667000033335,"br_status":1,"tr":1.0,"t_bus":4,"b_to":0.00337,"index":5,"angmin":-0.5235987755982988,"angmax":0.5235987755982988,"transformer":false,"tap":1.0},"4":{"br_r":0.00108,"rate_a":4.26,"b":-91.67583425009167,"shift":0.0,"rate_b":4.26,"br_x":0.0108,"rate_c":4.26,"ti":0.0,"g_to":0.0,"g_fr":0.0,"source_id":["branch",4],"b_fr":0.00926,"f_bus":2,"g":9.167583425009166,"br_status":1,"tr":1.0,"t_bus":3,"b_to":0.00926,"index":4,"angmin":-0.5235987755982988,"angmax":0.5235987755982988,"transformer":false,"tap":1.0},"6":{"br_r":0.00297,"rate_a":2.4,"b":-33.33666700003334,"shift":0.0,"rate_b":2.4,"br_x":0.0297,"rate_c":2.4,"ti":0.0,"g_to":0.0,"g_fr":0.0,"source_id":["branch",6],"b_fr":0.00337,"f_bus":4,"g":3.3336667000033335,"br_status":1,"tr":1.0,"t_bus":5,"b_to":0.00337,"index":6,"angmin":-0.5235987755982988,"angmax":0.5235987755982988,"transformer":false,"tap":1.0},"2":{"br_r":0.00304,"rate_a":4.26,"b":-32.56904637832204,"shift":0.0,"rate_b":4.26,"br_x":0.0304,"rate_c":4.26,"ti":0.0,"g_to":0.0,"g_fr":0.0,"source_id":["branch",2],"b_fr":0.00329,"f_bus":1,"g":3.2569046378322044,"br_status":1,"tr":1.0,"t_bus":4,"b_to":0.00329,"index":2,"angmin":-0.5235987755982988,"angmax":0.5235987755982988,"transformer":false,"tap":1.0},"3":{"br_r":0.00064,"rate_a":4.26,"b":-154.7029702970297,"shift":0.0,"rate_b":4.26,"br_x":0.0064,"rate_c":4.26,"ti":0.0,"g_to":0.0,"g_fr":0.0,"source_id":["branch",3],"b_fr":0.01563,"f_bus":1,"g":15.470297029702971,"br_status":1,"tr":1.0,"t_bus":5,"b_to":0.01563,"index":3,"angmin":-0.5235987755982988,"angmax":0.5235987755982988,"transformer":false,"tap":1.0},"1":{"br_r":0.00281,"rate_a":4.0,"b":-35.234840209999646,"shift":0.0,"rate_b":4.0,"br_x":0.0281,"rate_c":4.0,"ti":0.0,"g_to":0.0,"g_fr":0.0,"source_id":["branch",1],"b_fr":0.00356,"f_bus":1,"g":3.5234840209999647,"br_status":1,"tr":1.0,"t_bus":2,"b_to":0.00356,"index":1,"angmin":-0.5235987755982988,"angmax":0.5235987755982988,"transformer":false,"tap":1.0}},"gen":{"5":{"pg":3.0,"model":2,"shutdown":0.0,"startup":0.0,"qg":0.0,"gen_bus":5,"pmax":6.0,"vg":1.0,"mbase":100.0,"source_id":["gen",5],"index":5,"cost":[0.0,1000.0,0.0],"qmax":4.5,"gen_status":1,"qmin":-4.5,"pmin":0.0,"ncost":3},"4":{"pg":1.0,"model":2,"shutdown":0.0,"startup":0.0,"qg":0.0,"gen_bus":4,"pmax":2.0,"vg":1.0,"mbase":100.0,"source_id":["gen",4],"index":4,"cost":[0.0,4000.0,0.0],"qmax":1.5,"gen_status":1,"qmin":-1.5,"pmin":0.0,"ncost":3},"2":{"pg":0.85,"model":2,"shutdown":0.0,"startup":0.0,"qg":0.0,"gen_bus":1,"pmax":1.7,"vg":1.0,"mbase":100.0,"source_id":["gen",2],"index":2,"cost":[0.0,1500.0,0.0],"qmax":1.275,"gen_status":1,"qmin":-1.275,"pmin":0.0,"ncost":3},"3":{"pg":2.6,"model":2,"shutdown":0.0,"startup":0.0,"qg":0.0,"gen_bus":3,"pmax":5.2,"vg":1.0,"mbase":100.0,"source_id":["gen",3],"index":3,"cost":[0.0,3000.0,0.0],"qmax":3.9,"gen_status":1,"qmin":-3.9,"pmin":0.0,"ncost":3},"1":{"pg":0.2,"model":2,"shutdown":0.0,"startup":0.0,"qg":0.0,"gen_bus":1,"pmax":0.4,"vg":1.0,"mbase":100.0,"source_id":["gen",1],"index":1,"cost":[0.0,1400.0,0.0],"qmax":0.3,"gen_status":1,"qmin":-0.3,"pmin":0.0,"ncost":3}},"source_type":"matpower","name":"pglib_opf_case5_pjm","shunt":{},"load":{"2":{"source_id":["bus",3],"load_bus":3,"status":1,"qd":0.9861,"pd":3.0,"index":2},"3":{"source_id":["bus",4],"load_bus":4,"status":1,"qd":1.3147,"pd":4.0,"index":3},"1":{"source_id":["bus",2],"load_bus":2,"status":1,"qd":0.9861,"pd":3.0,"index":1}},"arcs_from_sw":[],"arcs":[[5,3,4],[4,2,3],[6,4,5],[2,1,4],[3,1,5],[1,1,2],[5,4,3],[4,3,2],[6,5,4],[2,4,1],[3,5,1],[1,2,1]],"arcs_from":[[5,3,4],[4,2,3],[6,4,5],[2,1,4],[3,1,5],[1,1,2]],"bus_shunts":{"5":[],"4":[],"2":[],"3":[],"1":[]},"bus_arcs_dc":{"5":[],"4":[],"2":[],"3":[],"1":[]},"source_version":"2","ref_buses":{"4":{"zone":1,"bus_i":4,"bus_type":3,"vmax":1.1,"source_id":["bus",4],"area":1,"vmin":0.9,"index":4,"va":0.0,"vm":1.0,"base_kv":230.0}},"bus_arcs_sw":{"5":[],"4":[],"2":[],"3":[],"1":[]},"arcs_from_dc":[],"arcs_sw":[],"bus_storage":{"5":[],"4":[],"2":[],"3":[],"1":[]},"baseMVA":100.0,"conductor_ids":[1]}